CM Aerial Rod
CM 
CM 
CM 
CM 
CE
GW	1	2	0	0	0	0	0	1.22	.0015	'Wire 1, 1 segments, halve wavelength long.
GE	1
LD	4	1	1	2	50
GN	1
EK
EX	0	1	1	0	1	0	0	'Voltage source (1+j0) at wire 1 segment 1.
FR	0	482	0	0	7.4	1
EN
