CM Antenna for AN/VRC-64 (AN/PRC-77 Rack)
CM 
CM 
CM 
CM 
CE
GW	1	9	0	0	0	0	0	0.362	.007	'Matching Unit
GW	2	9	0	0	0.362	0	0	2.012	0.015	'Bottom Part
GW	3	9	0	0	2.012	0	0	3.392	0.015	'Top Part
GE	1
LD	4	2	9	9	50
LD	4	3	9	9	125
GN	1
EK
EX	0	1	1	0	1	0	0	'Voltage source (1+j0) at wire 1 segment 1.
FR	0	482	0	0	30	1
EN
