CM SEM70 Antenna -- long
CM 
CM 
CM 
CM 
CM forw: 90, 0 ; back: 90, 180
CE
GW 1 9 0 0 0 0 0 1.66 .0001
GE 1
LD 4 1 9 9 50
GN 1
EK
EX 0 1 1 0 1 0 0
FR 0 1 0 0 30 0
XQ
FR 0 56 0 0 30 1
RP 0 37 73 1000 -90 0 5 5
