CM 2430cm Groundspike antenna with mast
CM 
CM 
CM 
CM forw: 0, 0 ; back: 0, 180
CE
GW 1 9 0 0 4 0 0 6.43 .0015
GW 3 9 0 1.41 0 0 0 4 0.003
GW 4 9 1 -1 0 0 0 4 0.003
GW 5 9 -1 -1 0 0 0 4 0.003
GE 1
LD 4 1 9 9 50
GN 1
EK
EX 0 1 1 0 1 0 0
FR 0 1 0 0 30 0
XQ
FR 0 243 0 0 30 2
RP 0 37 73 1000 -90 0 5 5
