CM PRC343 Antenna
CM 
CM 
CM 
CM 
CM forw: 0, 0 ; back: 0, 180
CE
GW 1 9 0 0 0 0 0 0.062457 .0015
GE 1
LD 4 1 9 9 50
GN 0 0 0 0 4 0.003
EK
EX 0 1 1 0 1 0 0
FR 0 1 0 0 2400 0
XQ
FR 0 86 0 0 2400 1
RP 0 19 37 1000 -90 0 10 10
